LTspice 24.0.9 for Windows
Circuit: * C:\Studia\ELA2\Projekt\LTSpice\Analog 1\Analog_1.asc
Start Time: Thu May 30 21:01:50 2024
Warning: Multiple definitions of model "u1:p" Type: BJT
solver = Normal
Maximum thread count: 12



trtol = 20
c1: Increased Cpar to 1.03e-12
c2: Increased Cpar to 3.53e-12
Direct Newton iteration for .op point succeeded.
Ignoring empty pin current: Ix(u1:3)
Ignoring empty pin current: Ix(u1:6)
Ignoring empty pin current: Ix(u1:7)
Ignoring empty pin current: Ix(u1:9)
Ignoring empty pin current: Ix(u1:3)
Ignoring empty pin current: Ix(u1:6)
Ignoring empty pin current: Ix(u1:7)
Ignoring empty pin current: Ix(u1:9)
.step iwy=0



.step iwy=0.05



.step iwy=0.1



.step iwy=0.15



.step iwy=0.2
tnom = 27
temp = 27
method = Gear
.step iwy=0.25


Measurement: pin
  step	AVG(-v(in)*i(v1))	FROM	TO
     1	0.000516013	0.007	0.008
     2	0.517138	0.007	0.008
     3	1.03301	0.007	0.008
     4	1.54834	0.007	0.008
     5	2.06314	0.007	0.008
     6	2.57741	0.007	0.008

Measurement: pout
  step	AVG(v(out)*i(i1))	FROM	TO
     1	0	0.007	0.008
     2	0.250558	0.007	0.008
     3	0.500896	0.007	0.008
     4	0.751015	0.007	0.008
     5	1.00091	0.007	0.008
     6	1.25059	0.007	0.008

Measurement: eff
  step	(pout/pin)*100
     1	0
     2	48.4509
     3	48.4891
     4	48.5045
     5	48.514
     6	48.5213

Measurement: vout_avg
  step	AVG(v(out))	FROM	TO
     1	5.06953	0.007	0.008
     2	5.01116	0.007	0.008
     3	5.00896	0.007	0.008
     4	5.00676	0.007	0.008
     5	5.00457	0.007	0.008
     6	5.00237	0.007	0.008

Measurement: vout_pp
  step	PP(v(out)*1000)	FROM	TO
     1	2.82153	0.007	0.008
     2	0.140012	0.007	0.008
     3	0.138762	0.007	0.008
     4	0.138035	0.007	0.008
     5	0.136942	0.007	0.008
     6	0.136151	0.007	0.008

Measurement: vin_pp
  step	PP(v(in)*1000)	FROM	TO
     1	0	0.007	0.008
     2	0	0.007	0.008
     3	0	0.007	0.008
     4	0	0.007	0.008
     5	0	0.007	0.008
     6	0	0.007	0.008

Total elapsed time: 0.241 seconds.

