LTspice 24.0.9 for Windows
Circuit: * C:\Studia\ELA2\Projekt\LTSpice\Analog_3\Analog_3.asc
Start Time: Sun Jun  2 16:52:19 2024
solver = Normal
Maximum thread count: 12



trtol = 20
c2: Increased Cpar to 1.5e-12
c5: Increased Cpar to 4.7e-18
c6: Increased Cpar to 6.25e-12
c7: Increased Cpar to 6.88e-12
c8: Increased Cpar to 6.25e-12
c9: Increased Cpar to 6.25e-12
c10: Increased Cpar to 6.25e-12
c11: Increased Cpar to 6.25e-12
c12: Increased Cpar to 6.88e-12
Direct Newton iteration for .op point succeeded.
Ignoring empty pin current: Ix(u1:4)
Ignoring empty pin current: Ix(u1:6)
Ignoring empty pin current: Ix(u1:8)
Ignoring empty pin current: Ix(u1:13)
Ignoring empty pin current: Ix(u1:15)
Ignoring empty pin current: Ix(u1:16)
Ignoring empty pin current: Ix(u1:4)
Ignoring empty pin current: Ix(u1:6)
Ignoring empty pin current: Ix(u1:8)
Ignoring empty pin current: Ix(u1:13)
Ignoring empty pin current: Ix(u1:15)
Ignoring empty pin current: Ix(u1:16)
.step iwy=0



.step iwy=0.01



.step iwy=0.02



.step iwy=0.03



.step iwy=0.04



.step iwy=0.05



.step iwy=0.06



.step iwy=0.07



.step iwy=0.08



.step iwy=0.09
tnom = 27
temp = 27
method = Gear
.step iwy=0.1


Measurement: pin
  step	AVG(-v(in)*i(v1))	FROM	TO
     1	6.98688e-05	0.008	0.01
     2	0.119632	0.008	0.01
     3	0.245309	0.008	0.01
     4	0.370954	0.008	0.01
     5	0.497682	0.008	0.01
     6	0.625933	0.008	0.01
     7	0.750029	0.008	0.01
     8	0.87583	0.008	0.01
     9	1.00098	0.008	0.01
    10	1.1275	0.008	0.01
    11	1.25405	0.008	0.01

Measurement: pout
  step	AVG(v(out)*i(i1))	FROM	TO
     1	0	0.008	0.01
     2	-0.120055	0.008	0.01
     3	-0.240108	0.008	0.01
     4	-0.36016	0.008	0.01
     5	-0.480209	0.008	0.01
     6	-0.600257	0.008	0.01
     7	-0.720304	0.008	0.01
     8	-0.840352	0.008	0.01
     9	-0.960394	0.008	0.01
    10	-1.08044	0.008	0.01
    11	-1.20048	0.008	0.01

Measurement: eff
  step	(pout/pin)*100
     1	0
     2	-100.354
     3	-97.8798
     4	-97.0902
     5	-96.489
     6	-95.898
     7	-96.0369
     8	-95.9491
     9	-95.9452
    10	-95.826
    11	-95.7283

Measurement: vout_avg
  step	AVG(v(out))	FROM	TO
     1	-12.5822	0.008	0.01
     2	-12.0055	0.008	0.01
     3	-12.0054	0.008	0.01
     4	-12.0053	0.008	0.01
     5	-12.0052	0.008	0.01
     6	-12.0051	0.008	0.01
     7	-12.0051	0.008	0.01
     8	-12.005	0.008	0.01
     9	-12.0049	0.008	0.01
    10	-12.0048	0.008	0.01
    11	-12.0048	0.008	0.01

Measurement: vout_pp
  step	PP(v(out)*1000)	FROM	TO
     1	0.761968	0.008	0.01
     2	15.5487	0.008	0.01
     3	19.4597	0.008	0.01
     4	19.1708	0.008	0.01
     5	14.3166	0.008	0.01
     6	12.7077	0.008	0.01
     7	10.6821	0.008	0.01
     8	2.77519	0.008	0.01
     9	2.7504	0.008	0.01
    10	2.32697	0.008	0.01
    11	2.93064	0.008	0.01

Measurement: vin_pp
  step	PP(v(in)*1000)	FROM	TO
     1	0	0.008	0.01
     2	11.9734	0.008	0.01
     3	14.9746	0.008	0.01
     4	16.8943	0.008	0.01
     5	17.293	0.008	0.01
     6	14.9107	0.008	0.01
     7	11.5671	0.008	0.01
     8	1.74522	0.008	0.01
     9	1.91021	0.008	0.01
    10	2.19059	0.008	0.01
    11	2.34699	0.008	0.01

Total elapsed time: 1076.607 seconds.

