LTspice 24.0.9 for Windows
Circuit: * C:\Studia\ELA2\Projekt\LTSpice\Analog 2\Analog_2.asc
Start Time: Wed May 29 18:44:41 2024
solver = Normal
Maximum thread count: 12
tnom = 27
temp = 27
method = modified trap
trtol = 20
c2: Increased Cpar to 1.5e-12
c5: Increased Cpar to 4.7e-18
c6: Increased Cpar to 6.25e-12
c7: Increased Cpar to 6.88e-12
c8: Increased Cpar to 6.25e-12
c9: Increased Cpar to 6.25e-12
c10: Increased Cpar to 6.25e-12
c11: Increased Cpar to 6.25e-12
c12: Increased Cpar to 6.88e-12
Direct Newton iteration for .op point succeeded.
Ignoring empty pin current: Ix(u1:4)
Ignoring empty pin current: Ix(u1:6)
Ignoring empty pin current: Ix(u1:8)
Ignoring empty pin current: Ix(u1:13)
Ignoring empty pin current: Ix(u1:15)
Ignoring empty pin current: Ix(u1:16)
Ignoring empty pin current: Ix(u1:4)
Ignoring empty pin current: Ix(u1:6)
Ignoring empty pin current: Ix(u1:8)
Ignoring empty pin current: Ix(u1:13)
Ignoring empty pin current: Ix(u1:15)
Ignoring empty pin current: Ix(u1:16)

pin: AVG(-v(in)*i(v1))=1.22063 FROM 0.004 TO 0.005
pout: AVG(v(out)*i(i1))=1.19401 FROM 0.004 TO 0.005
eff: (pout/pin)*100=97.8187
vout_avg: AVG(v(out))=11.9401 FROM 0.004 TO 0.005
vout_pp: PP(v(out)*1000)=7.96413 FROM 0.004 TO 0.005
vin_pp: PP(v(in)*1000)=3.76606 FROM 0.004 TO 0.005

Total elapsed time: 79.419 seconds.

